/*--------------------------------*- C++ -*----------------------------------*\
| =========                 |
| \\      /  F ield         | OpenFOAM: The Open Source CFD Toolbox
|  \\    /   O peration     |
|   \\  /    A nd           | Website: www.openfoam.com
|    \\/     M anipulation  |
\*---------------------------------------------------------------------------*/
FoamFile
{
    format      ascii;
    class       dictionary;
    location    "system";
    object      fvOptions;
}

explicitPorositySource1
{
   /* explicitPorositySourceCoeffs
    {
        selectionMode   cellZone;
        cellZone        porousAllZone;
        type            DarcyForchheimer;

        D   2.6e12;
 
        DarcyForchheimerCoeffs
        {
            d   d [0 -2 0 0 0 0 0] ($D $D $D);
            f   f [0 -1 0 0 0 0 0] (0 0 0);
 
            coordinateSystem
            {
                origin  (0 0 0);
                e1      (1 0 0);
                e2      (0 1 0);
                e3      (0 0 1);
            }
        }
    }*/
    
    type           explicitPorositySource;
    active         yes;

    explicitPorositySourceCoeffs
    {
        selectionMode   cellZone;

        cellZone        porousAllZone;

        type            DarcyForchheimer;

        // D 100;  // Very little blockage
        // D 200;  // Some blockage but steady flow
        // D 500;  // Slight waviness in the far wake
        D 2.6e12;

        d   ($D $D $D);
        f   (0 0 0);

        coordinateSystem
        {
            type    cartesian;
            origin  (0 0 0);
            coordinateRotation
            {
                type    none;                                           
                //e1  (1 0 0);                                                    
                //e2  (0 1 0);
                //e3  (0 0 1);
            }
        }
    }
}

